
  -HYPER- 09042310343D

186216  0  0  0  0  0  0  0  0999 V2000
    6.2817   11.1810   13.9284 C   0  0  0  0  0  0  0  0  0  0  0  0
    5.9907   11.7212   12.7288 O   0  0  0  0  0  0  0  0  0  0  0  0
    6.4857   12.1852   14.9486 C   0  0  0  0  0  0  0  0  0  0  0  0
    6.5594    9.7761   14.1965 C   0  0  0  0  0  0  0  0  0  0  0  0
    6.3386   13.4369   14.4721 O   0  0  0  0  0  0  0  0  0  0  0  0
    6.9742   11.8184   16.2712 C   0  0  0  0  0  0  0  0  0  0  0  0
    7.1809   10.3930   16.6047 C   0  0  0  0  0  0  0  0  0  0  0  0
    7.1771   12.5689   16.9777 H   0  0  0  0  0  0  0  0  0  0  0  0
    6.9703    9.3584   15.5538 C   0  0  0  0  0  0  0  0  0  0  0  0
    7.6490   10.0676   18.0077 C   0  0  0  0  0  0  0  0  0  0  0  0
    7.2017    7.8800   15.7864 C   0  0  0  0  0  0  0  0  0  0  0  0
    6.4662    9.0705   13.4238 H   0  0  0  0  0  0  0  0  0  0  0  0
    3.9176   14.3461   11.2822 C   0  0  0  0  0  0  0  0  0  0  0  0
    2.9831   14.5698   10.1872 C   0  0  0  0  0  0  0  0  0  0  0  0
    4.1249   15.3542   12.2981 C   0  0  0  0  0  0  0  0  0  0  0  0
    4.7900   13.3246   11.3889 O   0  0  0  0  0  0  0  0  0  0  0  0
    3.4040   16.6194   12.2534 C   0  0  0  0  0  0  0  0  0  0  0  0
    5.1434   15.0465   13.1249 O   0  0  0  0  0  0  0  0  0  0  0  0
    2.3834   16.8427   11.2073 C   0  0  0  0  0  0  0  0  0  0  0  0
    3.6153   17.3642   12.9635 H   0  0  0  0  0  0  0  0  0  0  0  0
    2.1708   15.8049   10.1600 C   0  0  0  0  0  0  0  0  0  0  0  0
    1.6333   18.1579   11.2367 C   0  0  0  0  0  0  0  0  0  0  0  0
    1.1878   15.9659    9.0195 C   0  0  0  0  0  0  0  0  0  0  0  0
    2.8950   13.8537    9.4237 H   0  0  0  0  0  0  0  0  0  0  0  0
    6.4647    9.9518   18.9442 C   0  0  0  0  0  0  0  0  0  0  0  0
    8.2954   10.8767   18.3582 H   0  0  0  0  0  0  0  0  0  0  0  0
    8.2528    9.1651   18.0222 H   0  0  0  0  0  0  0  0  0  0  0  0
    5.8999    7.1930   16.1421 C   0  0  0  0  0  0  0  0  0  0  0  0
    7.5919    7.4370   14.8662 H   0  0  0  0  0  0  0  0  0  0  0  0
    7.9562    7.7147   16.5498 H   0  0  0  0  0  0  0  0  0  0  0  0
    6.2987    7.3212   18.7516 C   0  0  0  0  0  0  0  0  0  0  0  0
    5.4739    6.9267   17.5445 C   0  0  0  0  0  0  0  0  0  0  0  0
    5.8277    8.6525   19.2982 C   0  0  0  0  0  0  0  0  0  0  0  0
    7.3582    7.3450   18.5145 H   0  0  0  0  0  0  0  0  0  0  0  0
    6.1732    6.5598   19.5262 H   0  0  0  0  0  0  0  0  0  0  0  0
    4.1839    9.8881   20.7845 C   0  0  0  0  0  0  0  0  0  0  0  0
    4.8014   11.1496   20.4400 C   0  0  0  0  0  0  0  0  0  0  0  0
    3.2362   10.0237   21.7327 O   0  0  0  0  0  0  0  0  0  0  0  0
    4.7070    8.6327   20.2622 C   0  0  0  0  0  0  0  0  0  0  0  0
    5.9635   11.1977   19.5626 C   0  0  0  0  0  0  0  0  0  0  0  0
    4.2918   12.1787   21.1448 O   0  0  0  0  0  0  0  0  0  0  0  0
    6.4374   12.1166   19.3766 H   0  0  0  0  0  0  0  0  0  0  0  0
    4.2844    7.7229   20.5740 H   0  0  0  0  0  0  0  0  0  0  0  0
    0.4538   12.2172   22.6030 C   0  0  0  0  0  0  0  0  0  0  0  0
    1.3428   11.2060   22.6554 O   0  0  0  0  0  0  0  0  0  0  0  0
    1.0740   13.4770   22.2572 C   0  0  0  0  0  0  0  0  0  0  0  0
   -0.9410   12.1605   23.0199 C   0  0  0  0  0  0  0  0  0  0  0  0
    2.4024   13.3582   22.0656 O   0  0  0  0  0  0  0  0  0  0  0  0
    0.3204   14.7224   22.3181 C   0  0  0  0  0  0  0  0  0  0  0  0
   -1.1194   14.6902   22.6523 C   0  0  0  0  0  0  0  0  0  0  0  0
    0.8058   15.6342   22.1269 H   0  0  0  0  0  0  0  0  0  0  0  0
   -1.7587   13.3921   23.0064 C   0  0  0  0  0  0  0  0  0  0  0  0
   -1.8607   16.0106   22.6631 C   0  0  0  0  0  0  0  0  0  0  0  0
   -3.2140   13.2653   23.4054 C   0  0  0  0  0  0  0  0  0  0  0  0
   -1.3553   11.2456   23.3280 H   0  0  0  0  0  0  0  0  0  0  0  0
   -2.3495   16.3511   21.2709 C   0  0  0  0  0  0  0  0  0  0  0  0
   -2.6797   15.9972   23.3760 H   0  0  0  0  0  0  0  0  0  0  0  0
   -1.1753   16.7948   22.9958 H   0  0  0  0  0  0  0  0  0  0  0  0
   -4.0568   12.8827   22.2069 C   0  0  0  0  0  0  0  0  0  0  0  0
   -3.3033   12.4807   24.1616 H   0  0  0  0  0  0  0  0  0  0  0  0
   -3.5772   14.1785   23.8673 H   0  0  0  0  0  0  0  0  0  0  0  0
   -4.7722   15.3653   21.6501 C   0  0  0  0  0  0  0  0  0  0  0  0
   -3.7250   16.0412   20.7901 C   0  0  0  0  0  0  0  0  0  0  0  0
   -4.7957   13.8758   21.3780 C   0  0  0  0  0  0  0  0  0  0  0  0
   -5.7519   15.7826   21.4023 H   0  0  0  0  0  0  0  0  0  0  0  0
   -4.6094   15.5708   22.7039 H   0  0  0  0  0  0  0  0  0  0  0  0
   -3.1485   17.0729   18.5446 C   0  0  0  0  0  0  0  0  0  0  0  0
   -4.1261   16.4497   19.4269 C   0  0  0  0  0  0  0  0  0  0  0  0
   -1.8142   17.3761   19.0125 C   0  0  0  0  0  0  0  0  0  0  0  0
   -3.3902   17.5822   17.3208 O   0  0  0  0  0  0  0  0  0  0  0  0
   -1.1104   18.0994   18.1197 O   0  0  0  0  0  0  0  0  0  0  0  0
   -1.4122   17.0647   20.3777 C   0  0  0  0  0  0  0  0  0  0  0  0
   -0.4598   17.3494   20.7176 H   0  0  0  0  0  0  0  0  0  0  0  0
   -5.1092   16.2975   19.0895 H   0  0  0  0  0  0  0  0  0  0  0  0
   -1.7819   17.9178   14.0702 C   0  0  0  0  0  0  0  0  0  0  0  0
   -2.6983   18.0140   15.0532 O   0  0  0  0  0  0  0  0  0  0  0  0
   -0.4448   18.2149   14.5341 C   0  0  0  0  0  0  0  0  0  0  0  0
   -2.0560   17.7293   12.6518 C   0  0  0  0  0  0  0  0  0  0  0  0
    0.6630   18.3331   13.5954 C   0  0  0  0  0  0  0  0  0  0  0  0
   -0.4140   18.5209   15.8459 O   0  0  0  0  0  0  0  0  0  0  0  0
    0.4369   18.0607   12.1599 C   0  0  0  0  0  0  0  0  0  0  0  0
    1.6136   18.6121   13.9446 H   0  0  0  0  0  0  0  0  0  0  0  0
   -0.9404   17.7543   11.6820 C   0  0  0  0  0  0  0  0  0  0  0  0
   -1.2783   17.5089   10.2264 C   0  0  0  0  0  0  0  0  0  0  0  0
   -3.0440   17.5780   12.3283 H   0  0  0  0  0  0  0  0  0  0  0  0
    1.3368   18.4650   10.2382 H   0  0  0  0  0  0  0  0  0  0  0  0
    2.3037   18.9357   11.6121 H   0  0  0  0  0  0  0  0  0  0  0  0
   -1.2919   16.0235    9.9322 C   0  0  0  0  0  0  0  0  0  0  0  0
   -2.2728   17.9155   10.0239 H   0  0  0  0  0  0  0  0  0  0  0  0
   -0.5928   18.0348    9.5686 H   0  0  0  0  0  0  0  0  0  0  0  0
   -0.1264   15.2942    9.3586 C   0  0  0  0  0  0  0  0  0  0  0  0
    1.6047   15.4905    8.1275 H   0  0  0  0  0  0  0  0  0  0  0  0
    1.0423   17.0124    8.7691 H   0  0  0  0  0  0  0  0  0  0  0  0
   -2.6084   13.8545    9.9579 C   0  0  0  0  0  0  0  0  0  0  0  0
   -3.7033   13.0750   10.0546 O   0  0  0  0  0  0  0  0  0  0  0  0
   -2.5506   15.2918   10.1892 C   0  0  0  0  0  0  0  0  0  0  0  0
   -1.4777   13.1470    9.3994 C   0  0  0  0  0  0  0  0  0  0  0  0
   -0.2506   13.8527    9.0547 C   0  0  0  0  0  0  0  0  0  0  0  0
   -1.7714   11.8664    9.1009 O   0  0  0  0  0  0  0  0  0  0  0  0
    0.5363   13.3328    8.5921 H   0  0  0  0  0  0  0  0  0  0  0  0
   -3.4039   15.7981   10.5343 H   0  0  0  0  0  0  0  0  0  0  0  0
   -4.6497    9.7097   11.0822 C   0  0  0  0  0  0  0  0  0  0  0  0
   -5.6427    9.0148   11.8907 C   0  0  0  0  0  0  0  0  0  0  0  0
   -4.7383   10.9739   10.6244 O   0  0  0  0  0  0  0  0  0  0  0  0
   -3.5213    8.9999   10.5216 C   0  0  0  0  0  0  0  0  0  0  0  0
   -2.8100    9.7615    9.6674 O   0  0  0  0  0  0  0  0  0  0  0  0
   -3.3469    7.5721   10.7527 C   0  0  0  0  0  0  0  0  0  0  0  0
   -4.2849    6.8558   11.6432 C   0  0  0  0  0  0  0  0  0  0  0  0
   -2.5562    7.0620   10.2856 H   0  0  0  0  0  0  0  0  0  0  0  0
   -5.4490    7.5861   12.2181 C   0  0  0  0  0  0  0  0  0  0  0  0
   -4.0257    5.3840   11.8872 C   0  0  0  0  0  0  0  0  0  0  0  0
   -6.4929    6.9255   13.0940 C   0  0  0  0  0  0  0  0  0  0  0  0
   -6.4900    9.5329   12.2331 H   0  0  0  0  0  0  0  0  0  0  0  0
   -3.0524    5.2042   13.0333 C   0  0  0  0  0  0  0  0  0  0  0  0
   -3.5879    4.9504   10.9841 H   0  0  0  0  0  0  0  0  0  0  0  0
   -4.9512    4.8455   12.0678 H   0  0  0  0  0  0  0  0  0  0  0  0
   -6.1688    7.1461   14.5567 C   0  0  0  0  0  0  0  0  0  0  0  0
   -6.5865    5.8678   12.8663 H   0  0  0  0  0  0  0  0  0  0  0  0
   -7.4662    7.3745   12.8788 H   0  0  0  0  0  0  0  0  0  0  0  0
   -4.9332    4.8285   14.8516 C   0  0  0  0  0  0  0  0  0  0  0  0
   -5.4301    6.1547   15.3877 C   0  0  0  0  0  0  0  0  0  0  0  0
   -3.4815    4.9400   14.4351 C   0  0  0  0  0  0  0  0  0  0  0  0
   -5.5528    4.4778   14.0317 H   0  0  0  0  0  0  0  0  0  0  0  0
   -5.0145    4.0779   15.6424 H   0  0  0  0  0  0  0  0  0  0  0  0
   -1.0461    4.8643   15.1433 C   0  0  0  0  0  0  0  0  0  0  0  0
   -2.4570    4.7270   15.4795 C   0  0  0  0  0  0  0  0  0  0  0  0
   -0.0042    4.6065   15.9579 O   0  0  0  0  0  0  0  0  0  0  0  0
   -0.6295    5.1222   13.7827 C   0  0  0  0  0  0  0  0  0  0  0  0
    0.7075    5.0462   13.6335 O   0  0  0  0  0  0  0  0  0  0  0  0
   -1.6098    5.2503   12.7126 C   0  0  0  0  0  0  0  0  0  0  0  0
   -1.2850    5.3723   11.7211 H   0  0  0  0  0  0  0  0  0  0  0  0
   -2.7362    4.4764   16.4608 H   0  0  0  0  0  0  0  0  0  0  0  0
    3.3544    5.8390   16.6711 C   0  0  0  0  0  0  0  0  0  0  0  0
    2.2297    5.0995   16.7332 O   0  0  0  0  0  0  0  0  0  0  0  0
    4.2087    6.2035   17.7935 C   0  0  0  0  0  0  0  0  0  0  0  0
    3.7674    6.0983   15.3097 C   0  0  0  0  0  0  0  0  0  0  0  0
    2.9358    5.5418   14.4073 O   0  0  0  0  0  0  0  0  0  0  0  0
    5.0491    6.7300   15.0252 C   0  0  0  0  0  0  0  0  0  0  0  0
    5.3602    6.8503   14.0291 H   0  0  0  0  0  0  0  0  0  0  0  0
    3.9203    5.9493   18.7711 H   0  0  0  0  0  0  0  0  0  0  0  0
   -6.3393    8.6768   16.5731 C   0  0  0  0  0  0  0  0  0  0  0  0
   -6.6595    8.3935   15.1804 C   0  0  0  0  0  0  0  0  0  0  0  0
   -6.7909    9.7184   17.2988 O   0  0  0  0  0  0  0  0  0  0  0  0
   -5.6211    7.7149   17.3796 C   0  0  0  0  0  0  0  0  0  0  0  0
   -5.5647    8.0747   18.6769 O   0  0  0  0  0  0  0  0  0  0  0  0
   -5.2001    6.4371   16.8206 C   0  0  0  0  0  0  0  0  0  0  0  0
   -4.7372    5.7256   17.4395 H   0  0  0  0  0  0  0  0  0  0  0  0
   -7.2369    9.0768   14.6297 H   0  0  0  0  0  0  0  0  0  0  0  0
   -5.6628   11.9850   19.9249 C   0  0  0  0  0  0  0  0  0  0  0  0
   -5.6366   13.4032   20.2576 C   0  0  0  0  0  0  0  0  0  0  0  0
   -4.9440   11.0212   20.7284 C   0  0  0  0  0  0  0  0  0  0  0  0
   -6.4474   11.3976   19.0003 O   0  0  0  0  0  0  0  0  0  0  0  0
   -5.2201    9.7510   20.3734 O   0  0  0  0  0  0  0  0  0  0  0  0
   -4.1760   11.4431   21.8923 C   0  0  0  0  0  0  0  0  0  0  0  0
   -3.7144   10.7216   22.5006 H   0  0  0  0  0  0  0  0  0  0  0  0
   -6.2160   14.0793   19.7001 H   0  0  0  0  0  0  0  0  0  0  0  0
    5.8806   13.4827   12.7679 Si  0  0  0  0  0  0  0  0  0  0  0  0
    7.5078   14.0149   11.9507 C   0  0  0  0  0  0  0  0  0  0  0  0
    2.9829   11.6991   22.2279 Si  0  0  0  0  0  0  0  0  0  0  0  0
    3.8273   11.7201   23.9265 C   0  0  0  0  0  0  0  0  0  0  0  0
   -1.9948   18.4084   16.6235 Si  0  0  0  0  0  0  0  0  0  0  0  0
   -2.4499   20.2384   16.8299 C   0  0  0  0  0  0  0  0  0  0  0  0
   -3.4214   11.4121    9.5336 Si  0  0  0  0  0  0  0  0  0  0  0  0
   -4.2672   11.3598    7.8364 C   0  0  0  0  0  0  0  0  0  0  0  0
   -3.5538   11.0213    7.0849 H   0  0  0  0  0  0  0  0  0  0  0  0
   -5.1109   10.6703    7.8705 H   0  0  0  0  0  0  0  0  0  0  0  0
    1.5587    4.7200   15.1452 Si  0  0  0  0  0  0  0  0  0  0  0  0
    2.0285    2.8906   14.9682 C   0  0  0  0  0  0  0  0  0  0  0  0
   -6.3214    9.6369   18.9985 Si  0  0  0  0  0  0  0  0  0  0  0  0
   -7.9581    9.1369   19.8168 C   0  0  0  0  0  0  0  0  0  0  0  0
   -7.8665    9.2225   20.8996 H   0  0  0  0  0  0  0  0  0  0  0  0
   -8.7547    9.7943   19.4679 H   0  0  0  0  0  0  0  0  0  0  0  0
   -2.7850   20.6416   15.8742 H   0  0  0  0  0  0  0  0  0  0  0  0
   -3.2492   20.3352   17.5646 H   0  0  0  0  0  0  0  0  0  0  0  0
   -1.5761   20.7940   17.1705 H   0  0  0  0  0  0  0  0  0  0  0  0
   -8.1981    8.1067   19.5535 H   0  0  0  0  0  0  0  0  0  0  0  0
    7.3088   14.3743   10.9411 H   0  0  0  0  0  0  0  0  0  0  0  0
    8.1889   13.1651   11.9056 H   0  0  0  0  0  0  0  0  0  0  0  0
    7.9640   14.8136   12.5358 H   0  0  0  0  0  0  0  0  0  0  0  0
    4.9089   11.6797   23.7971 H   0  0  0  0  0  0  0  0  0  0  0  0
    3.5593   12.6341   24.4565 H   0  0  0  0  0  0  0  0  0  0  0  0
    3.4999   10.8566   24.5058 H   0  0  0  0  0  0  0  0  0  0  0  0
   -4.6235   12.3561    7.5747 H   0  0  0  0  0  0  0  0  0  0  0  0
    1.4887    2.4543   14.1278 H   0  0  0  0  0  0  0  0  0  0  0  0
    3.1012    2.8043   14.7944 H   0  0  0  0  0  0  0  0  0  0  0  0
    1.7663    2.3580   15.8825 H   0  0  0  0  0  0  0  0  0  0  0  0
  1  2  1  0  0  0  0
  1  3  1  0  0  0  0
  1  4  1  0  0  0  0
  2157  1  0  0  0  0
  3  5  1  0  0  0  0
  3  6  1  0  0  0  0
  4  9  1  0  0  0  0
  4 12  1  0  0  0  0
  5157  1  0  0  0  0
  6  7  1  0  0  0  0
  6  8  1  0  0  0  0
  7  9  1  0  0  0  0
  7 10  1  0  0  0  0
  9 11  1  0  0  0  0
 10 25  1  0  0  0  0
 10 26  1  0  0  0  0
 10 27  1  0  0  0  0
 11 28  1  0  0  0  0
 11 29  1  0  0  0  0
 11 30  1  0  0  0  0
 13 14  1  0  0  0  0
 13 15  1  0  0  0  0
 13 16  1  0  0  0  0
 14 21  1  0  0  0  0
 14 24  1  0  0  0  0
 15 17  1  0  0  0  0
 15 18  1  0  0  0  0
 16157  1  0  0  0  0
 17 19  1  0  0  0  0
 17 20  1  0  0  0  0
 18157  1  0  0  0  0
 19 21  1  0  0  0  0
 19 22  1  0  0  0  0
 21 23  1  0  0  0  0
 22 81  1  0  0  0  0
 22 86  1  0  0  0  0
 22 87  1  0  0  0  0
 23 91  1  0  0  0  0
 23 92  1  0  0  0  0
 23 93  1  0  0  0  0
 25 40  1  0  0  0  0
 25 33  1  0  0  0  0
 28138  1  0  0  0  0
 28 32  1  0  0  0  0
 31 32  1  0  0  0  0
 31 33  1  0  0  0  0
 31 34  1  0  0  0  0
 31 35  1  0  0  0  0
 32135  1  0  0  0  0
 33 39  1  0  0  0  0
 36 37  1  0  0  0  0
 36 38  1  0  0  0  0
 36 39  1  0  0  0  0
 37 40  1  0  0  0  0
 37 41  1  0  0  0  0
 38159  1  0  0  0  0
 39 43  1  0  0  0  0
 40 42  1  0  0  0  0
 41159  1  0  0  0  0
 44 45  1  0  0  0  0
 44 46  1  0  0  0  0
 44 47  1  0  0  0  0
 45159  1  0  0  0  0
 46 48  1  0  0  0  0
 46 49  1  0  0  0  0
 47 52  1  0  0  0  0
 47 55  1  0  0  0  0
 48159  1  0  0  0  0
 49 50  1  0  0  0  0
 49 51  1  0  0  0  0
 50 52  1  0  0  0  0
 50 53  1  0  0  0  0
 52 54  1  0  0  0  0
 53 56  1  0  0  0  0
 53 57  1  0  0  0  0
 53 58  1  0  0  0  0
 54 59  1  0  0  0  0
 54 60  1  0  0  0  0
 54 61  1  0  0  0  0
 56 72  1  0  0  0  0
 56 63  1  0  0  0  0
 59154  1  0  0  0  0
 59 64  1  0  0  0  0
 62 63  1  0  0  0  0
 62 64  1  0  0  0  0
 62 65  1  0  0  0  0
 62 66  1  0  0  0  0
 63 68  1  0  0  0  0
 64150  1  0  0  0  0
 67 68  1  0  0  0  0
 67 69  1  0  0  0  0
 67 70  1  0  0  0  0
 68 74  1  0  0  0  0
 69 71  1  0  0  0  0
 69 72  1  0  0  0  0
 70161  1  0  0  0  0
 71161  1  0  0  0  0
 72 73  1  0  0  0  0
 75 76  1  0  0  0  0
 75 77  1  0  0  0  0
 75 78  1  0  0  0  0
 76161  1  0  0  0  0
 77 79  1  0  0  0  0
 77 80  1  0  0  0  0
 78 83  1  0  0  0  0
 78 85  1  0  0  0  0
 79 81  1  0  0  0  0
 79 82  1  0  0  0  0
 80161  1  0  0  0  0
 81 83  1  0  0  0  0
 83 84  1  0  0  0  0
 84 88  1  0  0  0  0
 84 89  1  0  0  0  0
 84 90  1  0  0  0  0
 88 91  1  0  0  0  0
 88 96  1  0  0  0  0
 91 98  1  0  0  0  0
 94 95  1  0  0  0  0
 94 96  1  0  0  0  0
 94 97  1  0  0  0  0
 95163  1  0  0  0  0
 96101  1  0  0  0  0
 97 98  1  0  0  0  0
 97 99  1  0  0  0  0
 98100  1  0  0  0  0
 99163  1  0  0  0  0
102103  1  0  0  0  0
102104  1  0  0  0  0
102105  1  0  0  0  0
103110  1  0  0  0  0
103113  1  0  0  0  0
104163  1  0  0  0  0
105106  1  0  0  0  0
105107  1  0  0  0  0
106163  1  0  0  0  0
107108  1  0  0  0  0
107109  1  0  0  0  0
108110  1  0  0  0  0
108111  1  0  0  0  0
110112  1  0  0  0  0
111114  1  0  0  0  0
111115  1  0  0  0  0
111116  1  0  0  0  0
112117  1  0  0  0  0
112118  1  0  0  0  0
112119  1  0  0  0  0
114130  1  0  0  0  0
114122  1  0  0  0  0
117121  1  0  0  0  0
117142  1  0  0  0  0
120121  1  0  0  0  0
120122  1  0  0  0  0
120123  1  0  0  0  0
120124  1  0  0  0  0
121146  1  0  0  0  0
122126  1  0  0  0  0
125126  1  0  0  0  0
125127  1  0  0  0  0
125128  1  0  0  0  0
126132  1  0  0  0  0
127167  1  0  0  0  0
128129  1  0  0  0  0
128130  1  0  0  0  0
129167  1  0  0  0  0
130131  1  0  0  0  0
133134  1  0  0  0  0
133135  1  0  0  0  0
133136  1  0  0  0  0
134167  1  0  0  0  0
135140  1  0  0  0  0
136137  1  0  0  0  0
136138  1  0  0  0  0
137167  1  0  0  0  0
138139  1  0  0  0  0
141142  1  0  0  0  0
141143  1  0  0  0  0
141144  1  0  0  0  0
142148  1  0  0  0  0
143169  1  0  0  0  0
144145  1  0  0  0  0
144146  1  0  0  0  0
145169  1  0  0  0  0
146147  1  0  0  0  0
149150  1  0  0  0  0
149151  1  0  0  0  0
149152  1  0  0  0  0
150156  1  0  0  0  0
151153  1  0  0  0  0
151154  1  0  0  0  0
152169  1  0  0  0  0
153169  1  0  0  0  0
154155  1  0  0  0  0
157158  1  0  0  0  0
158177  1  0  0  0  0
158178  1  0  0  0  0
158179  1  0  0  0  0
159160  1  0  0  0  0
160180  1  0  0  0  0
160181  1  0  0  0  0
160182  1  0  0  0  0
161162  1  0  0  0  0
162173  1  0  0  0  0
162174  1  0  0  0  0
162175  1  0  0  0  0
163164  1  0  0  0  0
164165  1  0  0  0  0
164166  1  0  0  0  0
164183  1  0  0  0  0
167168  1  0  0  0  0
168184  1  0  0  0  0
168185  1  0  0  0  0
168186  1  0  0  0  0
169170  1  0  0  0  0
170171  1  0  0  0  0
170172  1  0  0  0  0
170176  1  0  0  0  0
M  END
